Version 4
SHEET 1 1348 680
WIRE 112 -320 -128 -320
WIRE -128 -304 -128 -320
WIRE -128 -304 -176 -304
WIRE -80 -304 -128 -304
WIRE 384 -288 336 -288
WIRE -176 -256 -176 -304
WIRE -80 -256 -80 -304
WIRE 336 -256 336 -288
WIRE -176 -160 -176 -192
WIRE -128 -160 -176 -160
WIRE -80 -160 -80 -176
WIRE -80 -160 -128 -160
WIRE 560 -160 560 -240
WIRE 560 -160 528 -160
WIRE 1136 -160 704 -160
WIRE 384 -144 384 -288
WIRE 464 -144 384 -144
WIRE 592 -128 592 -240
WIRE 592 -128 528 -128
WIRE -128 -112 -128 -160
WIRE 464 -112 400 -112
WIRE 1136 -112 1136 -160
WIRE 1136 -112 1088 -112
WIRE 1184 -112 1136 -112
WIRE 704 -96 704 -160
WIRE 704 -96 528 -96
WIRE 864 -96 704 -96
WIRE 1184 -96 1184 -112
WIRE 560 -32 544 -32
WIRE 864 -32 864 -96
WIRE 864 -32 640 -32
WIRE 880 -32 864 -32
WIRE 1088 -16 1088 -32
WIRE 1136 -16 1088 -16
WIRE 1184 -16 1184 -32
WIRE 1184 -16 1136 -16
WIRE 112 0 112 -320
WIRE 208 0 112 0
WIRE 400 0 400 -112
WIRE 400 0 288 0
WIRE 544 0 544 -32
WIRE 544 0 400 0
WIRE 1136 48 1136 -16
WIRE 400 80 400 0
WIRE -32 112 -32 48
WIRE 112 112 112 0
WIRE 880 144 880 -32
WIRE 880 240 880 224
WIRE 112 256 112 192
WIRE 400 256 400 160
WIRE -32 272 -32 192
WIRE -32 272 -128 272
WIRE -128 304 -128 272
WIRE -32 368 -32 272
WIRE -32 528 -32 448
FLAG 400 256 0
FLAG 112 256 0
FLAG 880 240 0
FLAG -32 48 VCC
FLAG -32 528 -VCC
FLAG -128 304 0
FLAG 336 -256 0
FLAG 560 -240 VCC
FLAG 592 -240 -VCC
FLAG 1136 48 0
FLAG -128 -112 0
SYMBOL Misc\\signal 112 96 R0
WINDOW 123 24 44 Left 2
WINDOW 39 0 0 Left 2
SYMATTR Value2 AC 1
SYMATTR InstName V1
SYMATTR Value ""
SYMBOL res 304 -16 R90
WINDOW 0 0 56 VBottom 2
WINDOW 3 32 56 VTop 2
SYMATTR InstName R1
SYMATTR Value 100k
SYMBOL res 384 64 R0
SYMATTR InstName R3
SYMATTR Value 100k
SYMBOL res 656 -48 R90
WINDOW 0 0 56 VBottom 2
WINDOW 3 32 56 VTop 2
SYMATTR InstName R2
SYMATTR Value 10k
SYMBOL res 864 128 R0
SYMATTR InstName R4
SYMATTR Value 400k
SYMBOL voltage -32 96 R0
SYMATTR InstName V2
SYMATTR Value 15
SYMBOL voltage -32 352 R0
SYMATTR InstName V3
SYMATTR Value 15
SYMBOL AutoGenerated\\LM324 496 -128 R0
SYMATTR InstName U1
SYMBOL cap 1168 -96 R0
SYMATTR InstName C1
SYMATTR Value 5n
SYMBOL res 1072 -128 R0
SYMATTR InstName R5
SYMATTR Value 1Meg
SYMBOL cap -192 -256 R0
SYMATTR InstName C2
SYMATTR Value 114p
SYMBOL res -96 -272 R0
SYMATTR InstName R6
SYMATTR Value 1Meg
TEXT 440 472 Left 2 !.ac dec 100 1 10meg
TEXT 1280 -64 Left 2 ;punta
TEXT -328 -208 Left 2 ;punta
