Version 4
SHEET 1 880 680
WIRE 128 -16 80 -16
WIRE 240 -16 208 -16
WIRE 160 112 160 96
WIRE -112 128 -160 128
WIRE -16 128 -32 128
WIRE 80 128 80 -16
WIRE 80 128 48 128
WIRE 128 128 80 128
WIRE 240 144 240 -16
WIRE 240 144 192 144
WIRE 304 144 240 144
WIRE -160 160 -160 128
WIRE 128 160 96 160
WIRE 96 208 96 160
WIRE 160 208 160 176
WIRE 448 208 448 144
WIRE 448 208 400 208
WIRE 480 208 448 208
WIRE -160 256 -160 240
WIRE 400 288 400 272
WIRE 448 288 400 288
WIRE 480 288 448 288
WIRE -688 320 -688 288
WIRE -416 320 -416 288
WIRE 448 352 448 288
WIRE -688 432 -688 400
WIRE -640 432 -688 432
WIRE -416 432 -416 400
WIRE -384 432 -416 432
WIRE -640 448 -640 432
WIRE -384 448 -384 432
FLAG 96 208 0
FLAG 160 96 Vcc+
FLAG 160 208 Vee-
FLAG 304 144 Vo
FLAG -160 256 0
FLAG -640 448 0
FLAG -384 448 0
FLAG -688 288 Vcc+
FLAG -416 288 Vee-
FLAG -160 128 Vi
FLAG 448 352 0
SYMBOL Opamps\\opamp2 160 80 R0
SYMATTR InstName U1
SYMATTR Value LM833#0
SYMBOL cap 48 112 R90
WINDOW 0 0 32 VBottom 2
WINDOW 3 32 32 VTop 2
SYMATTR InstName C1
SYMATTR Value 2.7n
SYMBOL res 224 -32 R90
WINDOW 0 0 56 VBottom 2
WINDOW 3 32 56 VTop 2
SYMATTR InstName R
SYMATTR Value 39k
SYMBOL voltage -160 144 R0
WINDOW 123 -6 188 Left 2
WINDOW 39 24 124 Left 2
WINDOW 3 -9 213 Left 2
SYMATTR Value2 AC 1
SYMATTR SpiceLine Rser=50
SYMATTR Value ""
SYMATTR InstName V1
SYMBOL voltage -688 304 R0
WINDOW 123 0 0 Left 0
WINDOW 39 0 0 Left 0
SYMATTR InstName V2
SYMATTR Value 15
SYMBOL voltage -416 416 R180
WINDOW 0 24 96 Left 2
WINDOW 3 24 16 Left 2
WINDOW 123 0 0 Left 0
WINDOW 39 0 0 Left 0
SYMATTR InstName V3
SYMATTR Value 15
SYMBOL res -16 112 R90
WINDOW 0 0 56 VBottom 2
WINDOW 3 32 56 VTop 2
SYMATTR InstName R1
SYMATTR Value 0
SYMBOL cap 384 208 R0
SYMATTR InstName C2
SYMATTR Value 11p
SYMBOL res 464 192 R0
SYMATTR InstName R2
SYMATTR Value 1Meg
TEXT 416 32 Left 2 !.include LM833.lib
TEXT -720 472 Left 2 !;tran 2m
TEXT -168 376 Left 2 !.ac dec 1000 100 1meg
