Version 4
SHEET 1 880 680
WIRE 32 -144 -16 -144
WIRE 160 -144 112 -144
WIRE -16 -48 -16 -144
WIRE -16 -48 -240 -48
WIRE 48 -48 -16 -48
WIRE 160 -48 160 -144
WIRE 160 -48 112 -48
WIRE 272 -48 160 -48
WIRE 432 32 432 -16
WIRE -336 112 -416 112
WIRE -240 112 -240 -48
WIRE -240 112 -256 112
WIRE 0 112 -80 112
WIRE 128 112 96 112
WIRE 0 128 0 112
WIRE 32 128 0 128
WIRE 128 144 96 144
WIRE 272 144 272 -48
WIRE 288 144 272 144
WIRE 432 144 432 112
WIRE 432 144 400 144
WIRE 32 160 16 160
WIRE -240 176 -240 112
WIRE 16 176 16 160
WIRE 16 176 -240 176
WIRE 272 176 272 144
WIRE 272 176 96 176
WIRE 432 176 432 144
WIRE -416 224 -416 112
WIRE -416 240 -416 224
WIRE 432 304 432 256
WIRE -416 384 -416 320
FLAG -416 384 0
FLAG -80 112 0
FLAG 288 144 Vout
FLAG -416 224 Vin
FLAG 400 144 0
FLAG 432 -16 +Vcc
FLAG 432 304 -Vcc
FLAG 128 112 +Vcc
FLAG 128 144 -Vcc
FLAG 32 128 v+
FLAG 224 336 v+
FLAG 32 160 v-
FLAG 224 304 v-
FLAG 256 288 +vcc
FLAG 256 352 -vcc
FLAG 288 320 out
FLAG 96 176 out
SYMBOL res -352 128 R270
WINDOW 0 32 56 VTop 2
WINDOW 3 -4 53 VBottom 2
SYMATTR InstName R1
SYMATTR Value 39k
SYMBOL cap 112 -64 R90
WINDOW 0 0 32 VBottom 2
WINDOW 3 32 32 VTop 2
SYMATTR InstName C1
SYMATTR Value 2.7n
SYMBOL voltage -416 224 R0
WINDOW 123 24 124 Left 2
WINDOW 39 0 0 Left 2
SYMATTR Value2 AC 1. 0
SYMATTR InstName V1
SYMATTR Value ""
SYMBOL voltage 432 16 R0
WINDOW 123 0 0 Left 2
WINDOW 39 0 0 Left 2
SYMATTR InstName V2
SYMATTR Value 15
SYMBOL voltage 432 160 R0
WINDOW 123 0 0 Left 2
WINDOW 39 0 0 Left 2
SYMATTR InstName V3
SYMATTR Value 15
SYMBOL Opamps\\UniversalOpamp2 256 320 R0
SYMATTR InstName U1
SYMATTR Value2 Avol=316227 GBW=15Meg Slew=10Meg
SYMBOL res 128 -160 R90
WINDOW 0 0 56 VBottom 2
WINDOW 3 32 56 VTop 2
SYMATTR InstName R2
SYMATTR Value 390k
TEXT -104 408 Left 2 !.ac dec 1000 1m 1Mega
