Version 4
SHEET 1 1140 704
WIRE -688 -48 -736 -48
WIRE -480 -48 -512 -48
WIRE -736 0 -736 -48
WIRE 16 0 -16 0
WIRE 144 0 96 0
WIRE 432 0 400 0
WIRE 608 0 512 0
WIRE -512 16 -512 -48
WIRE -736 128 -736 80
WIRE -736 128 -784 128
WIRE -512 128 -512 96
WIRE 64 128 64 112
WIRE -144 144 -192 144
WIRE -16 144 -16 0
WIRE -16 144 -64 144
WIRE 32 144 -16 144
WIRE 496 144 496 128
WIRE -784 160 -784 128
WIRE -736 160 -736 128
WIRE 144 160 144 0
WIRE 144 160 96 160
WIRE 272 160 144 160
WIRE 400 160 400 0
WIRE 400 160 352 160
WIRE 464 160 400 160
WIRE 32 176 0 176
WIRE 608 176 608 0
WIRE 608 176 528 176
WIRE 720 176 608 176
WIRE 816 176 720 176
WIRE 464 192 432 192
WIRE -480 208 -512 208
WIRE 0 208 0 176
WIRE 64 208 64 192
WIRE 432 224 432 192
WIRE 496 224 496 208
WIRE 720 224 720 176
WIRE -512 272 -512 208
WIRE 272 272 224 272
WIRE 400 272 400 160
WIRE 400 272 352 272
WIRE -736 304 -736 240
WIRE -688 304 -736 304
WIRE 720 320 720 288
WIRE -512 384 -512 352
FLAG -192 144 Vt
FLAG 64 112 +Vcc
FLAG 496 128 +Vcc
FLAG 64 208 -Vcc
FLAG 496 224 -Vcc
FLAG 224 272 Voff
FLAG 432 224 0
FLAG 0 208 0
FLAG -784 160 0
FLAG -688 -48 +Vcc
FLAG -688 304 -Vcc
FLAG -512 128 0
FLAG -480 -48 Voff
FLAG -512 384 0
FLAG -480 208 Vt
FLAG 816 176 Vout
FLAG 720 320 0
SYMBOL res -48 128 R90
WINDOW 0 0 56 VBottom 2
WINDOW 3 32 56 VTop 2
SYMATTR InstName R1
SYMATTR Value 1k
SYMBOL res 112 -16 R90
WINDOW 0 0 56 VBottom 2
WINDOW 3 32 56 VTop 2
SYMATTR InstName R2
SYMATTR Value 25k
SYMBOL res 368 144 R90
WINDOW 0 0 56 VBottom 2
WINDOW 3 32 56 VTop 2
SYMATTR InstName RA
SYMATTR Value 5k
SYMBOL res 368 256 R90
WINDOW 0 0 56 VBottom 2
WINDOW 3 32 56 VTop 2
SYMATTR InstName RB
SYMATTR Value 2k
SYMBOL res 528 -16 R90
WINDOW 0 0 56 VBottom 2
WINDOW 3 32 56 VTop 2
SYMATTR InstName RF
SYMATTR Value {mc(10k,tola)}
SYMBOL voltage -736 -16 R0
WINDOW 123 0 0 Left 0
WINDOW 39 0 0 Left 0
SYMATTR InstName V1
SYMATTR Value 20
SYMBOL voltage -736 144 R0
WINDOW 123 0 0 Left 0
WINDOW 39 0 0 Left 0
SYMATTR InstName V2
SYMATTR Value 20
SYMBOL voltage -512 0 R0
WINDOW 123 0 0 Left 0
WINDOW 39 0 0 Left 0
SYMATTR InstName V3
SYMATTR Value 3.5
SYMBOL voltage -512 256 R0
WINDOW 123 0 0 Left 0
WINDOW 39 0 0 Left 0
SYMATTR InstName V4
SYMATTR Value 1
SYMBOL Opamps\\opamp2 64 96 R0
SYMATTR InstName U1
SYMATTR Value TL082
SYMBOL Opamps\\opamp2 496 112 R0
SYMATTR InstName U2
SYMATTR Value TL082
SYMBOL zener 736 288 R180
WINDOW 0 24 64 Left 2
WINDOW 3 24 0 Left 2
SYMATTR InstName D1
SYMATTR Value 1N750
SYMATTR Description Diode
SYMATTR Type diode
TEXT -264 640 Left 2 !.dc V4 0.250 0.550 0.001
TEXT -264 616 Left 2 !.include G:\\Mi unidad\\Facultad\\ITBA\\Teoria de Circuito\\Trabajos Practicos\\TP02\\parte 6\\Simulacion\\TL082.301
TEXT -264 664 Left 2 !.param tola=0.10
TEXT -264 688 Left 2 !.step param run 1 10 1
