Version 4
SHEET 1 924 680
WIRE -480 -128 -544 -128
WIRE -144 -128 -400 -128
WIRE -144 -96 -304 -96
WIRE 80 -80 -80 -80
WIRE 112 -80 80 -80
WIRE -544 64 -544 -128
WIRE -304 64 -304 -96
WIRE -224 64 -304 64
WIRE 80 64 80 -80
WIRE 80 64 -144 64
WIRE -304 144 -304 64
WIRE -544 272 -544 144
WIRE -304 272 -304 224
WIRE -144 272 -144 240
WIRE 16 272 16 240
WIRE -144 400 -144 352
WIRE 16 400 16 352
FLAG -304 272 0
FLAG -544 272 0
FLAG 112 -80 Vout
IOPIN 112 -80 Out
FLAG -144 400 0
FLAG 16 400 0
FLAG -144 240 +VCC
FLAG -80 -144 +VCC
FLAG 16 240 -VCC
FLAG -80 -112 -VCC
SYMBOL voltage -544 48 R0
WINDOW 123 24 124 Left 2
WINDOW 39 0 0 Left 0
SYMATTR Value2 AC 1 0
SYMATTR InstName Vin
SYMATTR Value ""
SYMBOL res -320 128 R0
SYMATTR InstName R1
SYMATTR Value 3.9k
SYMATTR SpiceLine tol=5 pwr=0.125
SYMBOL res -128 48 R90
WINDOW 0 0 56 VBottom 2
WINDOW 3 32 56 VTop 2
SYMATTR InstName R2
SYMATTR Value 330k
SYMATTR SpiceLine tol=5 pwr=0.125
SYMBOL res -384 -144 R90
WINDOW 0 0 56 VBottom 2
WINDOW 3 32 56 VTop 2
SYMATTR InstName R3
SYMATTR Value 220k
SYMATTR SpiceLine tol=5 pwr=0.125
SYMBOL voltage -144 256 R0
WINDOW 123 0 0 Left 0
WINDOW 39 0 0 Left 0
SYMATTR InstName V1
SYMATTR Value 15
SYMBOL voltage 16 256 R0
WINDOW 123 0 0 Left 0
WINDOW 39 0 0 Left 0
SYMATTR InstName V2
SYMATTR Value -15
SYMBOL AutoGenerated\\LM833 -112 -112 R0
SYMATTR InstName U1
TEXT -576 296 Left 2 !.ac dec 1000 10k 1Meg
