Version 4
SHEET 1 880 680
WIRE -48 -80 -96 -80
WIRE 96 -80 32 -80
WIRE 224 -80 176 -80
WIRE 416 -32 400 -32
WIRE -96 0 -96 -80
WIRE 432 0 400 0
WIRE 448 0 432 0
WIRE 224 16 224 -80
WIRE 256 16 224 16
WIRE 416 80 416 -32
WIRE 416 80 208 80
WIRE 64 128 16 128
WIRE 208 128 208 80
WIRE 208 128 144 128
WIRE 256 128 208 128
WIRE 432 128 432 0
WIRE 432 128 336 128
WIRE 16 192 16 128
WIRE 384 320 384 304
WIRE 480 320 480 304
FLAG -96 0 0
FLAG 16 192 0
FLAG 448 0 Vout
IOPIN 448 0 Out
FLAG 384 320 0
FLAG 480 320 0
FLAG 384 224 +VCC
FLAG 480 224 -VCC
FLAG 256 -48 +VCC
FLAG 256 -16 -VCC
SYMBOL voltage 48 -80 R90
WINDOW 123 -21 45 VRight 2
WINDOW 39 0 0 Left 0
WINDOW 0 -49 45 VRight 2
WINDOW 3 73 105 VLeft 1
SYMATTR Value2 AC 1 0
SYMATTR InstName Vin
SYMATTR Value SINE(0 0.5 10k 0 0 0 20)
SYMBOL res 160 112 R90
WINDOW 0 0 56 VBottom 2
WINDOW 3 32 56 VTop 2
SYMATTR InstName R1
SYMATTR Value 3.9k
SYMBOL res 192 -96 R90
WINDOW 0 0 56 VBottom 2
WINDOW 3 32 56 VTop 2
SYMATTR InstName R3
SYMATTR Value 220
SYMBOL res 352 112 R90
WINDOW 0 0 56 VBottom 2
WINDOW 3 32 56 VTop 2
SYMATTR InstName R2
SYMATTR Value 330k
SYMBOL voltage 384 208 R0
WINDOW 123 0 0 Left 0
WINDOW 39 0 0 Left 0
SYMATTR InstName V+
SYMATTR Value 15
SYMBOL voltage 480 208 R0
WINDOW 123 0 0 Left 0
WINDOW 39 0 0 Left 0
SYMATTR InstName V-
SYMATTR Value -15
SYMBOL AutoGenerated\\LM833 336 -16 R180
SYMATTR InstName U2
TEXT 120 320 Left 2 !;tran 2m
TEXT 56 288 Left 2 !.ac dec 1000 1K 1000T
