Version 4
SHEET 1 880 680
WIRE -192 64 -224 64
WIRE -64 64 -112 64
WIRE 96 64 16 64
WIRE 224 80 160 80
WIRE 288 80 224 80
WIRE 96 96 48 96
WIRE -224 192 -224 64
WIRE 48 224 48 96
WIRE 80 224 48 224
WIRE 224 224 224 80
WIRE 224 224 160 224
WIRE 48 256 48 224
WIRE 48 384 48 336
FLAG 48 384 0
FLAG -224 192 0
FLAG 272 384 0
FLAG 368 384 0
FLAG 128 112 +VCC
FLAG 272 304 +VCC
FLAG 128 48 -VCC
FLAG 368 304 -VCC
FLAG 288 80 Vout
IOPIN 288 80 Out
SYMBOL voltage -96 64 R90
WINDOW 0 -32 56 VBottom 2
WINDOW 3 32 56 VTop 2
WINDOW 123 60 56 VTop 2
WINDOW 39 0 0 Left 0
SYMATTR InstName Vin
SYMATTR Value SINE()
SYMATTR Value2 AC 1 0
SYMBOL Opamps\\opamp2 128 144 M180
SYMATTR InstName U1
SYMBOL res 32 240 R0
SYMATTR InstName R1
SYMATTR Value 3.9k
SYMATTR SpiceLine tol=5 pwr=0.125
SYMBOL res 176 208 R90
WINDOW 0 0 56 VBottom 2
WINDOW 3 32 56 VTop 2
SYMATTR InstName R2
SYMATTR Value 330k
SYMATTR SpiceLine tol=5 pwr=0.125
SYMBOL res 32 48 R90
WINDOW 0 0 56 VBottom 2
WINDOW 3 32 56 VTop 2
SYMATTR InstName R3
SYMATTR Value 220k
SYMATTR SpiceLine tol=5 pwr=0.125
SYMBOL voltage 272 288 R0
WINDOW 123 0 0 Left 0
WINDOW 39 0 0 Left 0
SYMATTR InstName V2
SYMATTR Value +15
SYMBOL voltage 368 288 R0
WINDOW 123 0 0 Left 0
WINDOW 39 0 0 Left 0
SYMATTR InstName V3
SYMATTR Value -15
TEXT -244 408 Left 2 !.ac dec 1k 1k 1G
