Version 4
SHEET 1 984 680
WIRE 384 -272 320 -272
WIRE 496 -272 464 -272
WIRE 176 -144 128 -144
WIRE 320 -144 320 -272
WIRE 320 -144 256 -144
WIRE 400 -144 320 -144
WIRE 496 -128 496 -272
WIRE 496 -128 464 -128
WIRE 544 -128 496 -128
WIRE 400 -112 352 -112
WIRE 352 -80 352 -112
WIRE -528 -32 -608 -32
WIRE -160 -32 -208 -32
WIRE -608 16 -608 -32
WIRE -208 32 -208 -32
WIRE 368 96 256 96
WIRE 560 96 448 96
WIRE -608 144 -608 96
WIRE -208 176 -208 112
WIRE -208 176 -256 176
WIRE -256 208 -256 176
WIRE 64 208 0 208
WIRE 256 208 256 96
WIRE 256 208 144 208
WIRE 400 208 256 208
WIRE -528 224 -608 224
WIRE 464 224 448 224
WIRE 560 224 560 96
WIRE 560 224 464 224
WIRE 608 224 560 224
WIRE -208 240 -208 176
WIRE 400 240 352 240
WIRE -608 272 -608 224
WIRE 352 272 352 240
WIRE 64 352 0 352
WIRE 256 352 256 208
WIRE 256 352 144 352
WIRE -208 384 -208 320
WIRE -144 384 -208 384
WIRE -608 400 -608 352
FLAG -608 144 0
FLAG -528 -32 Vt
FLAG -256 208 0
FLAG -160 -32 Vcc
FLAG -144 384 -Vcc
FLAG -528 224 Voff
FLAG -608 400 0
FLAG 352 -80 0
FLAG 432 -160 Vcc
FLAG 432 -96 -Vcc
FLAG 544 -128 V1
FLAG 128 -144 Vt
FLAG 608 224 Vo
FLAG 432 192 Vcc
FLAG 432 256 -Vcc
FLAG 352 272 0
FLAG 0 208 V1
FLAG 0 352 Voff
SYMBOL voltage -608 0 R0
WINDOW 123 0 0 Left 0
WINDOW 39 0 0 Left 0
SYMATTR InstName V2
SYMATTR Value PULSE(0.35 0.45 0 1 0)
SYMBOL voltage -208 224 R0
WINDOW 123 0 0 Left 0
WINDOW 39 0 0 Left 0
SYMATTR InstName V1
SYMATTR Value 10
SYMBOL voltage -208 16 R0
WINDOW 123 0 0 Left 0
WINDOW 39 0 0 Left 0
SYMATTR InstName V3
SYMATTR Value 10
SYMBOL voltage -608 256 R0
WINDOW 123 0 0 Left 0
WINDOW 39 0 0 Left 0
SYMATTR InstName V4
SYMATTR Value 3.5
SYMBOL Opamps\\UniversalOpamp2 432 -128 R0
SYMATTR InstName U1
SYMBOL res 272 -160 R90
WINDOW 0 0 56 VBottom 2
WINDOW 3 32 56 VTop 2
SYMATTR InstName R1
SYMATTR Value 1k
SYMBOL res 480 -288 R90
WINDOW 0 0 56 VBottom 2
WINDOW 3 32 56 VTop 2
SYMATTR InstName R2
SYMATTR Value 10k
SYMBOL Opamps\\UniversalOpamp2 432 224 R0
SYMATTR InstName U2
SYMBOL res 160 192 R90
WINDOW 0 0 56 VBottom 2
WINDOW 3 32 56 VTop 2
SYMATTR InstName RA
SYMATTR Value 200
SYMBOL res 160 336 R90
WINDOW 0 0 56 VBottom 2
WINDOW 3 32 56 VTop 2
SYMATTR InstName RB
SYMATTR Value 200
SYMBOL res 464 80 R90
WINDOW 0 0 56 VBottom 2
WINDOW 3 32 56 VTop 2
SYMATTR InstName RF
SYMATTR Value 1k
TEXT -674 508 Left 2 !.tran 0 1 0
