Version 4
SHEET 1 880 680
WIRE 704 -96 704 -128
WIRE 704 16 704 -16
WIRE 704 16 608 16
WIRE 608 32 608 16
WIRE 704 64 704 16
WIRE -240 80 -416 80
WIRE -64 80 -160 80
WIRE 112 80 -64 80
WIRE 112 128 112 80
WIRE 208 128 112 128
WIRE 208 160 128 160
WIRE 384 176 272 176
WIRE 704 192 704 144
WIRE -416 208 -416 80
WIRE 128 320 128 160
WIRE 256 320 128 320
WIRE 384 320 384 176
WIRE 384 320 336 320
WIRE -64 336 -64 80
WIRE 128 336 128 320
WIRE -416 416 -416 288
WIRE -112 416 -416 416
WIRE -64 416 -112 416
WIRE 128 416 -64 416
WIRE -112 544 -112 416
FLAG -112 544 0
FLAG 608 32 0
FLAG 704 -128 Vcc
FLAG 272 112 Vcc
FLAG 704 192 Vee
FLAG 272 144 Vee
SYMBOL AutoGenerated\\LM324 240 144 R0
SYMATTR InstName U1
SYMBOL Misc\\signal -416 192 R0
WINDOW 123 24 132 Left 2
WINDOW 39 0 0 Left 2
SYMATTR Value2 AC 1
SYMATTR InstName V1
SYMBOL res -144 64 R90
WINDOW 0 0 56 VBottom 2
WINDOW 3 32 56 VTop 2
SYMATTR InstName R1
SYMATTR Value 10k
SYMBOL res 144 432 R180
WINDOW 0 36 76 Left 2
WINDOW 3 -71 33 Left 2
SYMATTR InstName R3
SYMATTR Value 10k
SYMBOL res 240 336 R270
WINDOW 0 32 56 VTop 2
WINDOW 3 0 56 VBottom 2
SYMATTR InstName R2
SYMATTR Value 10k
SYMBOL res -80 320 R0
WINDOW 3 -157 61 Left 2
SYMATTR Value 40k
SYMATTR InstName R4
SYMBOL voltage 704 -112 R0
WINDOW 123 0 0 Left 2
WINDOW 39 0 0 Left 2
SYMATTR InstName V2
SYMATTR Value 15
SYMBOL voltage 704 48 R0
WINDOW 123 0 0 Left 2
WINDOW 39 0 0 Left 2
SYMATTR InstName V3
SYMATTR Value 15
TEXT 184 488 Left 2 !.ac dec 10 10 10meg
